14bus_Curr_Elem.Txt

CIRCUIT ELEMENT CURRENTS

(Currents into element from indicated bus)

Power Delivery Elements

  Bus     Phase    Magnitude, A     Angle      (Real)   +j  (Imag)

ELEMENT = "Vsource.SOURCE"
SOURCEBUS     1           2543.9 /_  150.1 =    -2205.1 +j    1268.5
SOURCEBUS     2           2543.9 /_   30.1 =     2201.1 +j    1275.4
SOURCEBUS     3           2543.9 /_  -89.9 =     3.9885 +j   -2543.9
------------
SOURCEBUS     0           2543.9 /_  -29.9 =     2205.1 +j   -1268.5
SOURCEBUS     0           2543.9 /_ -149.9 =    -2201.1 +j   -1275.4
SOURCEBUS     0           2543.9 /_   90.1 =    -3.9885 +j    2543.9

ELEMENT = "Line.1"
2             1           370.39 /_  -28.2 =     326.28 +j   -175.29
2             2           370.39 /_ -148.2 =    -314.95 +j   -194.92
2             3           370.39 /_   91.8 =    -11.332 +j    370.21
------------
5             1           370.39 /_  151.8 =    -326.28 +j    175.29
5             2           370.39 /_   31.8 =     314.95 +j    194.92
5             3           370.39 /_  -88.2 =     11.332 +j   -370.21

ELEMENT = "Line.2"
7             1           1410.7 /_  -37.7 =     1115.4 +j   -863.64
7             2           1410.7 /_ -157.7 =    -1305.7 +j   -534.19
7             3           1410.7 /_   82.3 =     190.21 +j    1397.8
------------
9             1           1410.7 /_  142.3 =    -1115.4 +j    863.64
9             2           1410.7 /_   22.3 =     1305.7 +j    534.18
9             3           1410.7 /_  -97.7 =    -190.22 +j   -1397.8

ELEMENT = "Line.3"
SOURCEBUS     1             1770 /_  -28.6 =     1554.4 +j   -846.52
SOURCEBUS     2             1770 /_ -148.6 =    -1510.3 +j   -922.93
SOURCEBUS     3             1770 /_   91.4 =    -44.115 +j    1769.4
------------
2             1             1770 /_  151.4 =    -1554.4 +j    846.52
2             2             1770 /_   31.4 =     1510.3 +j    922.93
2             3             1770 /_  -88.6 =     44.115 +j   -1769.4

ELEMENT = "Line.5"
3             1           678.14 /_  151.4 =    -595.18 +j       325
3             2           678.14 /_   31.4 =     579.05 +j    352.94
3             3           678.14 /_  -88.6 =      16.13 +j   -677.94
------------
2             1           678.14 /_  -28.6 =     595.18 +j      -325
2             2           678.14 /_ -148.6 =    -579.05 +j   -352.94
2             3           678.14 /_   91.4 =     -16.13 +j    677.94

ELEMENT = "Line.6"
3             1           240.24 /_  163.4 =    -230.29 +j    68.456
3             2           240.24 /_   43.4 =     174.43 +j     165.2
3             3           240.24 /_  -76.6 =     55.858 +j   -233.66
------------
4             1           240.24 /_  -16.6 =     230.29 +j   -68.456
4             2           240.24 /_ -136.6 =    -174.43 +j    -165.2
4             3           240.24 /_  103.4 =    -55.858 +j    233.66

ELEMENT = "Line.7"
SOURCEBUS     1           775.52 /_  -33.0 =     650.66 +j   -421.99
SOURCEBUS     2           775.52 /_ -153.0 =    -690.78 +j   -352.49
SOURCEBUS     3           775.52 /_   87.0 =     40.127 +j    774.48
------------
5             1           775.52 /_  147.0 =    -650.66 +j    421.99
5             2           775.52 /_   27.0 =     690.78 +j    352.49
5             3           775.52 /_  -93.0 =    -40.127 +j   -774.48

ELEMENT = "Line.8"
5             1           599.25 /_  -19.9 =      563.5 +j   -203.87
5             2           599.25 /_ -139.9 =    -458.31 +j   -386.07
5             3           599.25 /_  100.1 =    -105.19 +j    589.94
------------
4             1           599.25 /_  160.1 =     -563.5 +j    203.87
4             2           599.25 /_   40.1 =     458.31 +j    386.07
4             3           599.25 /_  -79.9 =     105.19 +j   -589.94

ELEMENT = "Line.9"
2             1            506.4 /_  -25.6 =     456.52 +j   -219.16
2             2            506.4 /_ -145.6 =    -418.05 +j   -285.78
2             3            506.4 /_   94.4 =    -38.465 +j    504.94
------------
4             1            506.4 /_  154.4 =    -456.52 +j    219.16
4             2            506.4 /_   34.4 =     418.05 +j    285.78
4             3            506.4 /_  -85.6 =     38.465 +j   -504.94

ELEMENT = "Line.10"
6             1            394.9 /_  -36.8 =     316.26 +j   -236.49
6             2            394.9 /_ -156.8 =    -362.93 +j   -155.65
6             3            394.9 /_   83.2 =     46.674 +j    392.13
------------
12            1            394.9 /_  143.2 =    -316.26 +j     236.5
12            2            394.9 /_   23.2 =     362.94 +j    155.64
12            3            394.9 /_  -96.8 =    -46.683 +j   -392.13

ELEMENT = "Line.11"
12            1           99.937 /_  -50.5 =     63.575 +j   -77.107
12            2           99.937 /_ -170.5 =    -98.565 +j   -16.504
12            3           99.937 /_   69.5 =     34.989 +j    93.611
------------
13            1           99.942 /_  129.5 =    -63.572 +j    77.116
13            2           99.942 /_    9.5 =     98.571 +j    16.497
13            3           99.942 /_ -110.5 =    -34.998 +j   -93.613

ELEMENT = "Line.12"
6             1           939.79 /_  -42.8 =     689.18 +j   -638.93
6             2           939.79 /_ -162.8 =    -897.92 +j   -277.38
6             3           939.79 /_   77.2 =     208.74 +j    916.31
------------
13            1           939.79 /_  137.2 =    -689.18 +j    638.94
13            2           939.79 /_   17.2 =     897.93 +j    277.38
13            3           939.79 /_ -102.8 =    -208.75 +j   -916.32

ELEMENT = "Line.13"
6             1           417.06 /_  -59.4 =     212.44 +j    -358.9
6             2           417.06 /_ -179.4 =    -417.03 +j   -4.5303
6             3           417.06 /_   60.6 =     204.59 +j    363.43
------------
11            1           417.06 /_  120.6 =    -212.44 +j     358.9
11            2           417.06 /_    0.6 =     417.04 +j    4.5237
11            3           417.06 /_ -119.4 =     -204.6 +j   -363.43

ELEMENT = "Line.14"
11            1           340.29 /_  -62.7 =     156.26 +j   -302.29
11            2           340.29 /_  177.3 =    -339.92 +j    15.823
11            3           340.29 /_   57.3 =     183.66 +j    286.47
------------
10            1           340.29 /_  117.3 =    -156.25 +j     302.3
10            2           340.29 /_   -2.7 =     339.92 +j   -15.829
10            3           340.29 /_ -122.7 =    -183.67 +j   -286.47

ELEMENT = "Line.15"
9             1           199.49 /_  -28.2 =     175.78 +j   -94.323
9             2           199.49 /_ -148.2 =    -169.58 +j   -105.07
9             3           199.49 /_   91.8 =    -6.2052 +j    199.39
------------
10            1           199.49 /_  151.8 =    -175.78 +j    94.332
10            2           199.49 /_   31.8 =     169.58 +j    105.06
10            3           199.49 /_  -88.2 =     6.1965 +j    -199.4

ELEMENT = "Line.16"
9             1           446.89 /_  -28.3 =     393.38 +j   -212.05
9             2           446.89 /_ -148.3 =    -380.33 +j   -234.65
9             3           446.89 /_   91.7 =    -13.048 +j     446.7
------------
14            1           446.89 /_  151.7 =    -393.37 +j    212.06
14            2           446.89 /_   31.7 =     380.33 +j    234.64
14            3           446.89 /_  -88.3 =     13.039 +j    -446.7

ELEMENT = "Line.17"
14            1           339.68 /_  130.8 =    -222.17 +j    256.95
14            2           339.68 /_   10.8 =     333.61 +j     63.93
14            3           339.68 /_ -109.2 =    -111.44 +j   -320.88
------------
13            1           339.67 /_  -49.2 =     222.17 +j   -256.94
13            2           339.67 /_ -169.2 =     -333.6 +j   -63.937
13            3           339.67 /_   70.8 =     111.43 +j    320.88

ELEMENT = "Transformer.T2"
5             1           505.89 /_  -46.6 =      347.3 +j   -367.85
5             2           505.89 /_ -166.6 =    -492.21 +j   -116.84
5             3           505.89 /_   73.4 =     144.92 +j    484.69
5             0      1.0692E-007 /_ -169.5 =  -1.0512E-007 +j -1.9554E-008
------------
6             1           2357.4 /_  133.4 =    -1618.4 +j    1714.2
6             2           2357.4 /_   13.4 =     2293.7 +j     544.5
6             3           2357.4 /_ -106.6 =     -675.3 +j   -2258.7
6             0      4.9826E-007 /_   10.5 =  4.8986E-007 +j 9.1122E-008

ELEMENT = "Transformer.T3"
4             1           175.61 /_  -47.1 =     119.44 +j   -128.74
4             2           175.61 /_ -167.1 =    -171.21 +j   -39.072
4             3           175.61 /_   72.9 =     51.768 +j    167.81
4             0      4.7573E-008 /_ -169.5 =  -4.6773E-008 +j -8.6882E-009
------------
9             1           850.84 /_  132.9 =     -578.7 +j    623.72
9             2           850.84 /_   12.9 =     829.51 +j    189.31
9             3           850.84 /_ -107.1 =    -250.81 +j   -813.03
9             0      2.3049E-007 /_   10.5 =  2.2661E-007 +j 4.2095E-008

ELEMENT = "Transformer.T4"
4             1           288.49 /_  -37.7 =     228.11 +j   -176.61
4             2           288.49 /_ -157.7 =    -267.01 +j   -109.24
4             3           288.49 /_   82.3 =     38.899 +j    285.85
4             0      5.9468E-008 /_ -154.4 =  -5.3641E-008 +j -2.5674E-008
------------
7             1           1410.7 /_  142.3 =    -1115.4 +j    863.64
7             2           1410.7 /_   22.3 =     1305.7 +j    534.18
7             3           1410.7 /_  -97.7 =    -190.21 +j   -1397.8
7             0       2.908E-007 /_   25.6 =  2.6231E-007 +j 1.2554E-007

ELEMENT = "Transformer.T5"
8             1                0 /_    0.0 =          0 +j         0
8             2                0 /_    0.0 =          0 +j         0
8             3      2.0337E-012 /_ -153.4 =  -1.819E-012 +j -9.0949E-013
8             0      2.0337E-012 /_   26.6 =  1.819E-012 +j 9.0949E-013
------------
7             1        0.0036556 /_ -105.0 =  -0.00094789 +j -0.0035305
7             2        0.0036556 /_  135.0 =  -0.0025836 +j 0.0025862
7             3        0.0036556 /_   15.0 =  0.0035315 +j 0.00094437
7             0       1.819E-012 /_  -90.0 =          0 +j -1.819E-012

= = = = = = = = = = = = = = = = = = =  = = = = = = = = = = =  = =

Power Conversion Elements

  Bus     Phase    Magnitude, A     Angle      (Real)   +j  (Imag)

ELEMENT = "Load.11"
11            1           79.764 /_  -45.2 =     56.187 +j   -56.615
11            2           79.764 /_ -165.2 =    -77.124 +j   -20.352
11            3           79.764 /_   74.8 =     20.937 +j    76.967
11            0      1.2867E-008 /_  174.0 =  -1.2796E-008 +j 1.3433E-009

ELEMENT = "Load.13"
13            1           701.69 /_  -40.9 =     530.64 +j   -459.12
13            2           701.69 /_ -160.9 =    -662.92 +j   -229.99
13            3           701.69 /_   79.1 =     132.29 +j     689.1
13            0      1.5538E-007 /_ -161.7 =  -1.4757E-007 +j -4.8661E-008

ELEMENT = "Load.3"
3             1           914.48 /_  -25.5 =     825.51 +j   -393.45
3             2           914.48 /_ -145.5 =    -753.49 +j   -518.19
3             3           914.48 /_   94.5 =    -72.021 +j    911.64
3             0      1.9421E-007 /_ -146.3 =  -1.6154E-007 +j -1.0782E-007

ELEMENT = "Load.5"
5             1           70.912 /_  -21.1 =     66.143 +j   -25.565
5             2           70.912 /_ -141.1 =    -55.212 +j   -44.499
5             3           70.912 /_   98.9 =    -10.931 +j    70.064
5             0      1.4768E-008 /_ -141.2 =  -1.1506E-008 +j -9.2579E-009

ELEMENT = "Load.2"
2             1           217.46 /_  -35.8 =     176.47 +j   -127.07
2             2           217.46 /_ -155.8 =    -198.28 +j   -89.291
2             3           217.46 /_   84.2 =      21.81 +j    216.36
2             0      4.4094E-008 /_ -155.7 =  -4.0178E-008 +j -1.8165E-008

ELEMENT = "Load.6"
6             1           625.07 /_  -50.1 =     400.57 +j   -479.85
6             2           625.07 /_ -170.1 =    -615.85 +j   -106.97
6             3           625.07 /_   69.9 =     215.28 +j    586.83
6             0      1.3658E-007 /_ -171.0 =  -1.3491E-007 +j -2.1329E-008

ELEMENT = "Load.4"
4             1           444.94 /_   -6.4 =     442.21 +j   -49.211
4             2           444.94 /_ -126.4 =    -263.72 +j   -358.36
4             3           444.94 /_  113.6 =    -178.48 +j    407.57
4             0      9.3582E-008 /_ -126.6 =  -5.5793E-008 +j -7.5132E-008

ELEMENT = "Load.14"
14            1           773.91 /_  -37.3 =     615.61 +j      -469
14            2           773.91 /_ -157.3 =    -713.97 +j   -298.63
14            3           773.91 /_   82.7 =     98.363 +j    767.63
14            0      1.7332E-007 /_ -158.3 =  -1.6098E-007 +j -6.4213E-008

ELEMENT = "Load.12"
12            1           298.77 /_  -32.2 =     252.71 +j   -159.38
12            2           298.77 /_ -152.2 =    -264.38 +j   -139.16
12            3           298.77 /_   87.8 =     11.678 +j    298.54
12            0      6.5997E-008 /_ -153.2 =  -5.8901E-008 +j -2.9772E-008

ELEMENT = "Load.9"
9             1           1631.1 /_  -46.4 =     1125.1 +j     -1181
9             2           1631.1 /_ -166.4 =    -1585.3 +j   -383.87
9             3           1631.1 /_   73.6 =     460.23 +j    1564.9
9             0      3.5959E-007 /_ -167.3 =  -3.5073E-007 +j -7.933E-008

ELEMENT = "Load.10"
10            1           517.29 /_  -50.1 =     332.07 +j   -396.64
10            2           517.29 /_ -170.1 =    -509.53 +j   -89.266
10            3           517.29 /_   69.9 =     177.46 +j     485.9
10            0      1.1432E-007 /_ -170.9 =  -1.1288E-007 +j -1.8056E-008

